**$ENCRYPTED_LIB
**$INTERFACE
* PSpice Model Editor - Version 16.2.0
*$
* LM5113
*****************************************************************************
*  (C) Copyright 2012 Texas Instruments Incorporated. All rights reserved.
*****************************************************************************
** This model is designed as an aid for customers of Texas Instruments.
** TI and its licensors and suppliers make no warranties, either expressed
** or implied, with respect to this model, including the warranties of 
** merchantability or fitness for a particular purpose.  The model is
** provided solely on an "as is" basis.  The entire risk as to its quality
** and performance is with the customer
*****************************************************************************
*
** Released by: WEBENCH(R) Design Center, Texas Instruments Inc.
* Part: LM5113
* Date: 14AUG2018
* Model Type: TRANSIENT
* Simulator: PSPICE
* Simulator Version: 16.0.0.p001
* EVM Order Number: 
* EVM Users Guide: 
* Datasheet: 
*
* Model Version: Final 4.20
*
*****************************************************************************
*
* Updates: 4.0 changed internal switch off resistance for convergence and CL, EPC 
* compatibility
* 4.1 changed the diode models used for bootstrap so VSW goes low during td
* 4.2 added RC delay for internal clamp of switch VDD to HB
* 
* Final 4.2
* Release to Web.
*
*****************************************************************************
.SUBCKT LM5113_TRANS HOH HOL HB HI HS LI LOH LOL VDD VSS PARAMS:  thplh=28n
+ tlphl=26.5n thphl=26.5n tlplh=28n
$CDNENCSTART
eee8c5c7a2bc4b01f045f303678664e7916da0bae22e8cb0bba041dd67c69ce448ea70148a9ac1670c8926c1ac5057c8ccfcd77bf87ca9dc561eb19b3bfbaacc
61f0acdd6f1a2e99ac73e51ea61710299f4671db9b70dc13c96db17d70fa7d8775be384500ac4988b3c82bf31c6531626ba29d28c4ca7f58967c5155b63970b3
86ad213343ec82a93ffe42bd8ca53c124975bf383b025dcf6146cfe58b5bc939bf1ee911780421dd539078c414ad4af48b97422dde5485cd7fc7f09facedd587
e66fa780b10d0304ac73e51ea6171029caf1c3134fe6820045187529a207c4e4473a0ea38704dbb1eb0102dd1a04078a706b807646b80371956711648fdaafb1
23ee73d6065f3641c19f67d53bbdb36ef1ec06bf99e591bc8a8ce6418bc3b3b5644126c9831a96bd56ff4338f4f2cc3a7562c06352794d3c6d90484b61ad257a
e9dd452c4e6cfebeac73e51ea617102949532b88bebd8f578dbd2b12c9e14b78f88f039a57eb237698dc8712b089b68fb665067975fe60a871f0fac4e30c1f2f
317f1bcb1e5ac862ac73e51ea617102932c8e25da0370ead384a8cde73873fdc98dc8712b089b68fb665067975fe60a88e7599a877645b6ad0ad98659cec4573
1fcbc249eb947153ac73e51ea617102983bd65a49d866bb526a09281d2242ec076d2cd283005be4475be384500ac4988b3c82bf31c65316254589e73c5e62908
abc05a84349f7fe5ac73e51ea6171029813c7d5fcec2409226a09281d2242ec0f6d5804286646c1175be384500ac4988b3c82bf31c65316254589e73c5e62908
394197bedeb77a714d0d47dfc3875ebae8f5bc524989286c3f3e6e0a4cca5537644126c9831a96bd56ff4338f4f2cc3a7562c06352794d3c6d90484b61ad257a
bedb4c285028d389b1558f1074f1c4be9454161e6778c649be7658d16edf44dcf701fda948844ca02d7d046703215a1bad326c6e3c95f18b01a3716318f27a52
a367670a286b82a7ac73e51ea617102983bd65a49d866bb526a09281d2242ec0dd8fa48e99ec35b336cc4c67aca67ca1706b807646b80371956711648fdaafb1
e513bba6d3228b87ac73e51ea61710296c25e2930d8a506ec63dbad0be4ff33d98dc8712b089b68fb665067975fe60a88e7599a877645b6ad0ad98659cec4573
71dbbe87e53e082fac73e51ea61710299754aea73d8eca60dc235b2f6bdaff10dc64db2afdf83adf6baa4c351fc5e3ad60a188d940e604c1ecf22f43cd602b91
44286f328a01b55967d2eff95da56274c5d045671e5decaf2029be389027b23ddee66ef6744d05e95fd939526b22d562f80ef57958b17ad743056a8065efa3b5
4b6085f201263667496ac98669dd6b1bc5d045671e5decaf2029be389027b23ddee66ef6744d05e95fd939526b22d562f80ef57958b17ad743056a8065efa3b5
5f41a7a4794b5367c19eb54304e1fd9e9454161e6778c6494075e33732f2936bf701fda948844ca02d7d046703215a1bad326c6e3c95f18b01a3716318f27a52
2a76c18f665e8c27ac73e51ea61710292e6263899c355819220c65deed8aea62c9322890ded6647bf71ee3549eb0cef686d7aaf828690538021d76babe23ffd5
4d5b1b73307b13030ce6dbcd5ee49d368fcd429472eb5c6a154382dba5f655c663e3b3e8629762d065b7aa86825283d0a9cc77b69dfe1f80b4ceb08e30600d55
afe317ae10e98155ac73e51ea617102999b1aed181d756eb5eb9ba528d0e3378721ab954c158c97b589af0812576e61b8318958aa75d4556dd0a70f33e2447ea
4e2689494256295447158635b18b665998dc8712b089b68fb665067975fe60a88e7599a877645b6a0ff12bdfbc441b3f3647f88c94e6d7af4b283ee775a30b6a
4b6085f201263667496ac98669dd6b1bc5d045671e5decaf2029be389027b23ddee66ef6744d05e95fd939526b22d562f80ef57958b17ad743056a8065efa3b5
301e882fc7560399ac73e51ea61710295215d7b245ec1d20220c65deed8aea62c9322890ded6647b6b12c4e16b3b1c9086d7aaf828690538021d76babe23ffd5
4d5b1b73307b13030ce6dbcd5ee49d368fcd429472eb5c6a154382dba5f655c663e3b3e8629762d065b7aa86825283d0a9cc77b69dfe1f80b4ceb08e30600d55
b8b56863f55c875eac73e51ea6171029ac66e05963de72a557486d7c13647efb57e2c5aa80851370539078c414ad4af48b97422dde5485cd7fc7f09facedd587
705d459f50f7a08cac73e51ea617102900d0eae8a409cb85942de962261674b3644126c9831a96bd56ff4338f4f2cc3a7562c06352794d3c6d90484b61ad257a
5ff44a992c4e2ee380f6e56c964fd02238e74afad906fa2b3d30c9789935085afd07e64898a931b2b032015482838020d20b72a565e1474d302101f9f11f5ffa
fd49a287c76beca9cf3db11be0503885c5d045671e5decaf2029be389027b23ddee66ef6744d05e95fd939526b22d562f80ef57958b17ad743056a8065efa3b5
647f79b8a1a288049fe6bfa5d04ea30f3df84fa7e809b0ec6846e5551802d1248c354d4fac732325cd230b35c772d3d8ef41eb54ccb1d940561eb19b3bfbaacc
240cf6a83072ff1ac19f67d53bbdb36ef1ec06bf99e591bc710f07ae03c63400c9322890ded6647bf71ee3549eb0cef686d7aaf8286905381a0fcb9b56054979
4d5b1b73307b13030ce6dbcd5ee49d368fcd429472eb5c6a154382dba5f655c663e3b3e8629762d065b7aa86825283d0a9cc77b69dfe1f80b4ceb08e30600d55
3562310fcea4af5fac73e51ea6171029f934bcd6f2da8a77b977c12cd60afd42a5e04f198daae5e3eb0102dd1a04078a706b807646b80371956711648fdaafb1
ddf70eae3b592905ac73e51ea6171029ad3455e660de076145187529a207c4e4b36cb4a32568f2362d7d046703215a1bad326c6e3c95f18b01a3716318f27a52
0b00c72b7c2c95cdb8a5f4d43c66c88503bef0fc425e976a1859c4fd2862da8fc9322890ded6647b6b12c4e16b3b1c9086d7aaf8286905381a0fcb9b56054979
4d5b1b73307b13030ce6dbcd5ee49d368fcd429472eb5c6a154382dba5f655c663e3b3e8629762d065b7aa86825283d0a9cc77b69dfe1f80b4ceb08e30600d55
a3f576b848cd34f9ac73e51ea61710298b0302357fd13712f60a2b9f238b07d22d7d046703215a1bad326c6e3c95f18b5a24e80e99882ab99c1048489de4e760
e83d563d614d5ce9ac73e51ea61710293313fe4d733a9566b977c12cd60afd42b36cb4a32568f2362d7d046703215a1bad326c6e3c95f18b01a3716318f27a52
904e90e8e5b2fbfd1b335ff6669122154dc381eb73b346456a028aa03c4965a0e17bdddab372899d0ce6dbcd5ee49d368fcd429472eb5c6a2b23585823e98b84
717cdf892ff6b6ffd3743d0ffba060d4367a56b607dfa373176317c6862abdae644126c9831a96bd56ff4338f4f2cc3a7562c06352794d3c6d90484b61ad257a
93d3808648446fd7301c579d225292219ab1f17a4ce624433b79d1cd0e073c320ce6dbcd5ee49d368fcd429472eb5c6a154382dba5f655c6742449378be4874d
e0bee0f3fadd6724ac73e51ea6171029cc38f8dfa59676c502d9c9666aa6de6909d28d7b100d016e75be384500ac4988b3c82bf31c65316254589e73c5e62908
3bdfb3bcf8540f57ac73e51ea6171029c82c9f131b13aea6f60a2b9f238b07d22d7d046703215a1bad326c6e3c95f18b5a24e80e99882ab99c1048489de4e760
6525da4cfd71409dac73e51ea61710292390efe0bfbda24b384a8cde73873fdc98dc8712b089b68fb665067975fe60a88e7599a877645b6ad0ad98659cec4573
2bfdfbe661a0882d154c9422f100fd9e7b52f19794575aaabb1fe4b194410246f3095cc4809683a7eba7c51f7a3cc36fa8fd19f33527d4f26c22f8338c178f33
9783ae8e4821c68fa223a4da0518f3d675be384500ac4988b3c82bf31c6531626ba29d28c4ca7f5850156fc726f5bf6a09821ef53b64e85b0a8c5f106555aec3
8767f397bff4c3a731bbfa71d5efb6fe825b843a3aa9ddcd98dc8712b089b68fb665067975fe60a88e7599a877645b6a0ff12bdfbc441b3f735382970523152b
81bc0cb7c12452441b335ff6669122158cb2eda5f5713c0a3198d49f852a63aba229dc20397166263e7c35f2506413dfc3f0946da2b4d6085b0f81211b67e8f3
88b96b7c831faa4a41097083f6b3a209c5d045671e5decaf2029be389027b23ddee66ef6744d05e95fd939526b22d562f80ef57958b17ad743056a8065efa3b5
bbf0a766f49a242c2637e9cac2aa5cea2cecad1ebf804c4bf467148f06ca8e43539078c414ad4af48b97422dde5485cdfde7521cb4f9d2156b2e19dfa648863e
2e781867abaac5ce80f6e56c964fd0224cba707b2d83f0ac3ea581d928804b5eb970325d5b1850720c4f3a1c4714b0fa8a0d255190811d11919a1e6feef9077e
933cef0b2eff3dcf14116b5b1ff5095d2d7d046703215a1bad326c6e3c95f18b5a24e80e99882ab94cd248682f81dcc6d50b83f047579d54aa3957c2a9cb4a92
647f79b8a1a28804fab2f7266cf508e43df84fa7e809b0ec5be71cb797ef35538c354d4fac732325cd230b35c772d3d8ef41eb54ccb1d940561eb19b3bfbaacc
e644fc3843e7ff1bac73e51ea61710290763e18494464aac934c4892809e2d2d98dc8712b089b68fb665067975fe60a88e7599a877645b6ad0ad98659cec4573
316c4e958281b805ac73e51ea61710293fa71d961a50df3d1accb68d72cf943a75be384500ac4988b3c82bf31c6531626ba29d28c4ca7f58967c5155b63970b3
b90e0c5fe970b387ac73e51ea6171029bcdaa297f142f6e687c16cf3d3c532f076d2cd283005be4475be384500ac4988b3c82bf31c65316254589e73c5e62908
658c017bfd47a4cc2d65e353d653f2101b180d303bb673db79d57ef7b515e65047d55e15685954ffcb10d32dd1a412b096cc4b5209c35bf7d2c0ea702584563a
e776e9b255bda08cbfd81d659a09e4b32c4b5f36edab5d85072e732378f73a0aa314a1180c78415bda510304889e2753e0c6230e4cfd3756249a9c54c44c32f3
8767f397bff4c3a731bbfa71d5efb6fe825b843a3aa9ddcd98dc8712b089b68fb665067975fe60a88e7599a877645b6a0ff12bdfbc441b3f735382970523152b
9afa1f10a7f457ea301c579d22529221fbf63dabd3233c9d3b79d1cd0e073c320ce6dbcd5ee49d368fcd429472eb5c6a154382dba5f655c6742449378be4874d
abea470061b4cf461b335ff666912215c9d6c464c3b7c647b7ef5e47f69be29813cae8a6c33935094e22299a8e5f3da229c9085142b343ae5fc31374dd9dfec1
8dcea2cdd2d3d5cc9783ae8e4821c68fbaa78b47fb353ab356ff4338f4f2cc3a7562c06352794d3c105ada81f6f47b569b881a8125fff86cf732f347ae55e70b
bbf0a766f49a242c2637e9cac2aa5cea2cecad1ebf804c4bf467148f06ca8e43539078c414ad4af48b97422dde5485cdfde7521cb4f9d2156b2e19dfa648863e
644136b10815c823ac73e51ea6171029bcdaa297f142f6e687c16cf3d3c532f084118adb4716afe036cc4c67aca67ca1706b807646b80371956711648fdaafb1
615a28c46d723740ac73e51ea617102958aed0df6ad6724087c16cf3d3c532f0f6d5804286646c1175be384500ac4988b3c82bf31c65316254589e73c5e62908
48a94d11d238250fab2e7fa5131b5ee37c905424483694d20e5e512b2683d1b78e46de18ff30d6c5ed0ec71d865dd84b2d7d046703215a1b3a6f0166677340f8
0382627c5bd012d4ac73e51ea61710297a81aaf011822ce077b3e5ef73b7d8dddad4b7980b83d60c2d7d046703215a1bad326c6e3c95f18b01a3716318f27a52
0dea85bdd2f61705ac73e51ea61710293646db8a1bd0a440934c4892809e2d2d98dc8712b089b68fb665067975fe60a88e7599a877645b6ad0ad98659cec4573
7aff1ed175018062b646f62427dff1f44975bf383b025dcf5299d6da847ba949644126c9831a96bd56ff4338f4f2cc3a7562c06352794d3c6d90484b61ad257a
c43ca65fb3926f3bac73e51ea61710292ee22e688bff7dc13d6a9f087f16395b09d28d7b100d016e75be384500ac4988b3c82bf31c65316254589e73c5e62908
5c2e262d493b312fb8a5f4d43c66c885bec15c197419a3942139f465cfb9a0bb644126c9831a96bd56ff4338f4f2cc3a7562c06352794d3c6d90484b61ad257a
76772fcaed53044fe59bff947e04f6096e057b4ab3abff0dbf1ee911780421dd539078c414ad4af48b97422dde5485cdfde7521cb4f9d2156b2e19dfa648863e
$CDNENCFINISH
.ENDS

.subckt LM5113_TRANS_S1 1 2 3 4  
$CDNENCSTART
eee8c5c7a2bc4b01f045f303678664e7916da0bae22e8cb0bba041dd67c69ce448ea70148a9ac1670c8926c1ac5057c8ccfcd77bf87ca9dc561eb19b3bfbaacc
44f117741689d59131820e631d1d1d749e35700c7913e9392c4b5f36edab5d85072e732378f73a0aa314a1180c78415bda510304889e27536e747ad5ef813016
3c76beba9b808c126f31076d2b37e96baa35006d782c6ce998dc8712b089b68fb665067975fe60a88e7599a877645b6a0ff12bdfbc441b3f735382970523152b
1e7e75f62a07f7b1bbcb463bf6330e447b3ba2fd65dbf9050ffb76e2ddf4497b2596d65fe0df484d4ccedb72add73bb9e325d5d0dcd089386c73cf7811b64401
$CDNENCFINISH
.ends LM5113_TRANS_S1

*$
.subckt d_d1 1 2
$CDNENCSTART
eee8c5c7a2bc4b01f045f303678664e7916da0bae22e8cb0bba041dd67c69ce448ea70148a9ac1670c8926c1ac5057c8ccfcd77bf87ca9dc561eb19b3bfbaacc
1580a2664af5c9b7fdb6e7bb29cb97110ce6dbcd5ee49d368fcd429472eb5c6a154382dba5f655c663e3b3e8629762d065b7aa86825283d0c79e2bba7dbb9e25
0697746efb67a3a3bab4c43640f02baac5d045671e5decaf2029be389027b23ddee66ef6744d05e95fd939526b22d562f80ef57958b17ad743056a8065efa3b5
f7a854a98d732f8b36303cba840e87f298dc8712b089b68fb665067975fe60a88e7599a877645b6a0ff12bdfbc441b3f3647f88c94e6d7af4b283ee775a30b6a
39c84b0c9f72e007384a3d223972a59698dc8712b089b68fb665067975fe60a88e7599a877645b6a0ff12bdfbc441b3f3647f88c94e6d7af4b283ee775a30b6a
2f5a7726f4336f6e75be384500ac4988b3c82bf31c6531626ba29d28c4ca7f5850156fc726f5bf6a09821ef53b64e85b6fb01cc7f810891d05abd97cd50c92e9
15000e8a5ef1b4bc294b7ea543ff9d6d56ff4338f4f2cc3a7562c06352794d3c105ada81f6f47b569b881a8125fff86c9a6be84535ff73094a351719498e65e8
$CDNENCFINISH
.ends d_d1
*$
.model PMOS01 pmos 
$CDNENCSTART
eee8c5c7a2bc4b01f045f303678664e7916da0bae22e8cb0bba041dd67c69ce448ea70148a9ac1670c8926c1ac5057c8ccfcd77bf87ca9dc561eb19b3bfbaacc
56b88e698cd33c39294b7ea543ff9d6d56ff4338f4f2cc3a7562c06352794d3c105ada81f6f47b569b881a8125fff86c9a6be84535ff73094a351719498e65e8
65e54396b9fda8542cfd65c867dc8eed539078c414ad4af48b97422dde5485cdfde7521cb4f9d2159d5dfc24c54d1622bfbea2f0690177d3e611992b54f8094c
aae9ca9f463e2b77fb78c2efe7c8c74b75be384500ac4988b3c82bf31c6531626ba29d28c4ca7f5850156fc726f5bf6a09821ef53b64e85b0a8c5f106555aec3

$CDNENCFINISH

.model NMOS01 nmos 
$CDNENCSTART
eee8c5c7a2bc4b01f045f303678664e7916da0bae22e8cb0bba041dd67c69ce448ea70148a9ac1670c8926c1ac5057c8ccfcd77bf87ca9dc561eb19b3bfbaacc
2de45dfbfde3dda32c4b5f36edab5d85072e732378f73a0aa314a1180c78415bda510304889e2753e0c6230e4cfd375622f2ceee5a3b72f9cb15c83c52220a0b
c9055ec7bc469457d582d9f420fa1a680ce6dbcd5ee49d368fcd429472eb5c6a154382dba5f655c663e3b3e8629762d065b7aa86825283d0c79e2bba7dbb9e25
aae9ca9f463e2b77fb78c2efe7c8c74b75be384500ac4988b3c82bf31c6531626ba29d28c4ca7f5850156fc726f5bf6a09821ef53b64e85b0a8c5f106555aec3

$CDNENCFINISH

.subckt d_d 1 2
$CDNENCSTART
eee8c5c7a2bc4b01f045f303678664e7916da0bae22e8cb0bba041dd67c69ce448ea70148a9ac1670c8926c1ac5057c8ccfcd77bf87ca9dc561eb19b3bfbaacc
1580a2664af5c9b7226f47b5ec66cf11539078c414ad4af48b97422dde5485cdfde7521cb4f9d2159d5dfc24c54d1622bfbea2f0690177d3e611992b54f8094c
0697746efb67a3a3b100fa23c529c60898dc8712b089b68fb665067975fe60a88e7599a877645b6a0ff12bdfbc441b3f3647f88c94e6d7af4b283ee775a30b6a
f7a854a98d732f8b36303cba840e87f298dc8712b089b68fb665067975fe60a88e7599a877645b6a0ff12bdfbc441b3f3647f88c94e6d7af4b283ee775a30b6a
017be23040227359294b7ea543ff9d6d56ff4338f4f2cc3a7562c06352794d3c105ada81f6f47b569b881a8125fff86c9a6be84535ff73094a351719498e65e8
0660a0f5c4a1d5362cfd65c867dc8eed539078c414ad4af48b97422dde5485cdfde7521cb4f9d2159d5dfc24c54d1622bfbea2f0690177d3e611992b54f8094c
39c84b0c9f72e007384a3d223972a59698dc8712b089b68fb665067975fe60a88e7599a877645b6a0ff12bdfbc441b3f3647f88c94e6d7af4b283ee775a30b6a
$CDNENCFINISH
.ends d_d


.SUBCKT COMPHYS_BASIC_GEN INP INM HYS OUT PARAMS: VDD=1 VSS=0 VTHRESH=0.5	
$CDNENCSTART
eee8c5c7a2bc4b01f045f303678664e7916da0bae22e8cb0bba041dd67c69ce448ea70148a9ac1670c8926c1ac5057c8ccfcd77bf87ca9dc561eb19b3bfbaacc
9132b7121104d4358be44c41ab888f41b6e3a1568843d867294b7ea543ff9d6d56ff4338f4f2cc3a7562c06352794d3c105ada81f6f47b564d270d270298c353
70d49a25931fcad5af5f0f227a33dfc56b574213c15e8d8904d73209bd6cb354e07469d76c73f504727902e71a3e75d8bb77e20fe987edd8ecafe8e384db69b2
d1579de13894cc53749d13634498f34b2814ec203481f38f6485690991963efc688dc2cfc32ec3a9609956094a2f05290f82827fc36822f0d38aff4e12555a5d
c985c90e830fff9408c1c60067df16560ce6dbcd5ee49d368fcd429472eb5c6a154382dba5f655c663e3b3e8629762d065b7aa86825283d0c79e2bba7dbb9e25
1fdb31c906bbcd77a571ceda5616b3af539078c414ad4af48b97422dde5485cdfde7521cb4f9d2159d5dfc24c54d1622bfbea2f0690177d3e611992b54f8094c
13142c038a62aa150aa66cfdd7abddd72c4b5f36edab5d85072e732378f73a0aa314a1180c78415bda510304889e2753e0c6230e4cfd3756249a9c54c44c32f3
$CDNENCFINISH
.ENDS COMPHYS_BASIC_GEN
*$
.SUBCKT AND2_BASIC_GEN A B Y PARAMS: VDD=1 VSS=0 VTHRESH=0.5 
$CDNENCSTART
eee8c5c7a2bc4b01f045f303678664e7916da0bae22e8cb0bba041dd67c69ce448ea70148a9ac1670c8926c1ac5057c8ccfcd77bf87ca9dc561eb19b3bfbaacc
f305b7cfa07651615a9037c8c42a602b94aebb18efc1b73c4a0534bc16c6b751d67091752c09698a1541fe9d381cc6756e7b9dc4b0f656725c272fedb5861b65
ce312808b0a91175dcf306adebf133c01a6c7500361cb5a45652e10015a645e7ae8fe392a28b027e539078c414ad4af48b97422dde5485cd7fc7f09facedd587
bd9831b9881f0b92629491fb9c5ac4262d7d046703215a1bad326c6e3c95f18b5a24e80e99882ab94cd248682f81dcc6d50b83f047579d54aa3957c2a9cb4a92
02f2959404528fbdc14a2a6b7306d5bb98dc8712b089b68fb665067975fe60a88e7599a877645b6a0ff12bdfbc441b3f3647f88c94e6d7af4b283ee775a30b6a
$CDNENCFINISH
.ENDS AND2_BASIC_GEN
*$
.SUBCKT INVERTER IN OUT  
$CDNENCSTART
eee8c5c7a2bc4b01f045f303678664e7916da0bae22e8cb0bba041dd67c69ce448ea70148a9ac1670c8926c1ac5057c8ccfcd77bf87ca9dc561eb19b3bfbaacc
d1579de13894cc53e5e7fade4086c0d1be3569c02839738bbadefe983ad5b11f9f4a67cfc66264a1294b7ea543ff9d6d56ff4338f4f2cc3aff50349167a804bb
864c8f4bc3c53634346c0054fd6fd1d42d7d046703215a1bad326c6e3c95f18b5a24e80e99882ab94cd248682f81dcc6d50b83f047579d54aa3957c2a9cb4a92
35470ee5f505623b80e659041e95a8b4c5d045671e5decaf2029be389027b23ddee66ef6744d05e95fd939526b22d562f80ef57958b17ad743056a8065efa3b5
$CDNENCFINISH
.ends INVERTER
*$
.SUBCKT INV_BASIC_GEN A  Y PARAMS: VDD=1 VSS=0 VTHRESH=0.5 
$CDNENCSTART
eee8c5c7a2bc4b01f045f303678664e7916da0bae22e8cb0bba041dd67c69ce448ea70148a9ac1670c8926c1ac5057c8ccfcd77bf87ca9dc561eb19b3bfbaacc
f305b7cfa07651615a9037c8c42a602b94aebb18efc1b73c4a0534bc16c6b751d67091752c09698a1541fe9d381cc6759fdfd00a6c11e28cc494f6733d088f3c
97a44fd04201403ec4d5e8dbd1cb68c5294b7ea543ff9d6d56ff4338f4f2cc3a7562c06352794d3c105ada81f6f47b569b881a8125fff86cf732f347ae55e70b
bd9831b9881f0b92629491fb9c5ac4262d7d046703215a1bad326c6e3c95f18b5a24e80e99882ab94cd248682f81dcc6d50b83f047579d54aa3957c2a9cb4a92
02f2959404528fbdc14a2a6b7306d5bb98dc8712b089b68fb665067975fe60a88e7599a877645b6a0ff12bdfbc441b3f3647f88c94e6d7af4b283ee775a30b6a
$CDNENCFINISH
.ENDS INV_BASIC_GEN
*$
.SUBCKT BUF_DELAY_BASIC_GEN A  Y PARAMS: VDD=1 VSS=0 VTHRESH=0.5 DELAY = 10n 
$CDNENCSTART
eee8c5c7a2bc4b01f045f303678664e7916da0bae22e8cb0bba041dd67c69ce448ea70148a9ac1670c8926c1ac5057c8ccfcd77bf87ca9dc561eb19b3bfbaacc
f305b7cfa0765161b7a8d0a5fa27600f87c337a6226f9c259ce2376dcef929e055e2d3dce1717d717ca80a2ba8175d7e156e384e82df62155c272fedb5861b65
7e21bb79cbca9f8ce0c67063107b52eb294b7ea543ff9d6d56ff4338f4f2cc3a7562c06352794d3c105ada81f6f47b569b881a8125fff86cf732f347ae55e70b
bd9831b9881f0b92004c220067cfdabf08c1c60067df16560ce6dbcd5ee49d368fcd429472eb5c6a154382dba5f655c663e3b3e8629762d09e293f7c4a323ecd
99cb3fa3ad4040ee39d350e60ca2338a43558a6d1f49bc89294b7ea543ff9d6d56ff4338f4f2cc3a7562c06352794d3c105ada81f6f47b564d270d270298c353
f305b7cfa0765161c36180965553170d8da13727b91264449ce2376dcef929e07d4a1829490ab8db9b0e7c0027d2abb9e6efecb6122f9b38ecafe8e384db69b2
7e21bb79cbca9f8ce0c67063107b52eb294b7ea543ff9d6d56ff4338f4f2cc3a7562c06352794d3c105ada81f6f47b569b881a8125fff86cf732f347ae55e70b
8d3568177ac8ace9a0338d780f826fc62c4b5f36edab5d85072e732378f73a0aa314a1180c78415bda510304889e2753e0c6230e4cfd3756249a9c54c44c32f3
042d1e8ae349b80f20aae7cad4de8d7fc5d045671e5decaf2029be389027b23ddee66ef6744d05e95fd939526b22d562f80ef57958b17ad743056a8065efa3b5
$CDNENCFINISH
.ENDS BUF_DELAY_BASIC_GEN
*$
.SUBCKT OR2_BASIC_GEN A B Y PARAMS: VDD=1 VSS=0 VTHRESH=0.5 
$CDNENCSTART
eee8c5c7a2bc4b01f045f303678664e7916da0bae22e8cb0bba041dd67c69ce448ea70148a9ac1670c8926c1ac5057c8ccfcd77bf87ca9dc561eb19b3bfbaacc
f305b7cfa07651615a9037c8c42a602b94aebb18efc1b73c4a0534bc16c6b751d67091752c09698a1541fe9d381cc675a596b857655fb4795c272fedb5861b65
ce312808b0a91175dcf306adebf133c01a6c7500361cb5a45652e10015a645e7ae8fe392a28b027e539078c414ad4af48b97422dde5485cd7fc7f09facedd587
bd9831b9881f0b92629491fb9c5ac4262d7d046703215a1bad326c6e3c95f18b5a24e80e99882ab94cd248682f81dcc6d50b83f047579d54aa3957c2a9cb4a92
02f2959404528fbdc14a2a6b7306d5bb98dc8712b089b68fb665067975fe60a88e7599a877645b6a0ff12bdfbc441b3f3647f88c94e6d7af4b283ee775a30b6a
$CDNENCFINISH
.ENDS OR2_BASIC_GEN
*$
.SUBCKT BUFFER_PS A Y PARAMS: vhi=1 vlo=0 vthresh=500e-3 tplh=1e-9 tphl=1e-9 tr=1e-9 tf=1e-9
$CDNENCSTART
eee8c5c7a2bc4b01f045f303678664e7916da0bae22e8cb0bba041dd67c69ce448ea70148a9ac1670c8926c1ac5057c8ccfcd77bf87ca9dc561eb19b3bfbaacc
b1e1a75a4c03144ffd8ad3f88159c81e98dc8712b089b68fb665067975fe60a88e7599a877645b6a0ff12bdfbc441b3f3647f88c94e6d7af4b283ee775a30b6a
383821663e4954c2038f066f73e9b4ae2d7d046703215a1bad326c6e3c95f18b5a24e80e99882ab94cd248682f81dcc6d50b83f047579d54aa3957c2a9cb4a92
f0a3943a524b95e1413eec5a17a7622575be384500ac4988b3c82bf31c6531626ba29d28c4ca7f5850156fc726f5bf6a09821ef53b64e85b0a8c5f106555aec3
3525228a4196bf1e3bfc9ee8dc6e0fd25414ce0c3c28bd7fb43298f4b3811895ce7cac3619d77449172cac7b9698ef38294b7ea543ff9d6d2245d06457f0bde9
1830c2657ad72cfd80caf75d9556d4e82cfd65c867dc8eed539078c414ad4af48b97422dde5485cdfde7521cb4f9d2159d5dfc24c54d1622ed65ca26fbb49f81
e683a3d374597388319394d2970bb1aebf0e8aeac1ee4acf1933952b4dcad44c4d985589162d35b85192a1f4ea15cca8c6314e3c21f3975457088b21e284207f
59696ce43217c78a489d02fabd515895294b7ea543ff9d6d56ff4338f4f2cc3a7562c06352794d3c105ada81f6f47b569b881a8125fff86cf732f347ae55e70b
50ff5937e1f4aec7088a4decac19c24efa15b6f6532689ccbff077c5371b976ad899b67b1514e77c247ce4099c7069888ed9989b4fdbe89c84a603f467791872
b6740db0d75566c15bd9ba46c107a78101174c2dd034b5ed98dc8712b089b68fb665067975fe60a88e7599a877645b6a0ff12bdfbc441b3f735382970523152b
e65068a5529a5a08bc8abe03198c62e2294b7ea543ff9d6d56ff4338f4f2cc3a7562c06352794d3c105ada81f6f47b569b881a8125fff86cf732f347ae55e70b
4c1a4bf8a33698824a3bc44e792baa17979added4bba322b45555c45879de233c3b775f7138ddffae1127beaed600a94c5d045671e5decaffa9b0eb0121a64a8
4acc2604cc13e40087d03543a42c123a2c4b5f36edab5d85072e732378f73a0aa314a1180c78415bda510304889e2753e0c6230e4cfd3756249a9c54c44c32f3
f5ece99b8dc1e922134ba678c3a552ab9286534c194f5bf760129872902b40542852f737f3e1fdd297efe455f1ba5b5566c5e322d06d2953a2713860206d5dfb
5bd9ba46c107a78101174c2dd034b5ed98dc8712b089b68fb665067975fe60a88e7599a877645b6a0ff12bdfbc441b3f3647f88c94e6d7af4b283ee775a30b6a
230c8a132db19d25c306c8e91cade4aa18018bad8db9c9d30c4f3a1c4714b0fa69413a540c7bb72fc3c82ada44c780f2c6314e3c21f397544afce059d1020bbe
e0dfb329be65daf29984f18c3826044d75be384500ac4988b3c82bf31c6531626ba29d28c4ca7f5850156fc726f5bf6a09821ef53b64e85b0a8c5f106555aec3
bd6fe760313481fff7307a8bcc75d233294b7ea543ff9d6d56ff4338f4f2cc3a7562c06352794d3c105ada81f6f47b569b881a8125fff86cf732f347ae55e70b
d1579de13894cc532e865137b41094437d1b42c81d7f147d8795a8d338813804060e5e0af582bfca237b8d7a10235eadae8fe392a28b027e561eb19b3bfbaacc
f9da05a8e6a65298826d20fdd211253f294b7ea543ff9d6d56ff4338f4f2cc3a7562c06352794d3c105ada81f6f47b569b881a8125fff86cf732f347ae55e70b
d78f19d4db97b9b7fd8ad3f88159c81e98dc8712b089b68fb665067975fe60a88e7599a877645b6a0ff12bdfbc441b3f3647f88c94e6d7af4b283ee775a30b6a
$CDNENCFINISH
.ENDS BUFFER_PS
*$
.SUBCKT NSW_PS D G S PARAMS: RONval=10k VTHval=0.7 VCHARval=0.01 CGval=0.01pF CDval=0.01pF CSval=0.01pf
$CDNENCSTART
eee8c5c7a2bc4b01f045f303678664e7916da0bae22e8cb0bba041dd67c69ce448ea70148a9ac1670c8926c1ac5057c8ccfcd77bf87ca9dc561eb19b3bfbaacc
3f510a0fa0d9a58d00486c7e6994c28c75be384500ac4988b3c82bf31c6531626ba29d28c4ca7f5850156fc726f5bf6a09821ef53b64e85b0a8c5f106555aec3
4fee993ae8eff14300486c7e6994c28c75be384500ac4988b3c82bf31c6531626ba29d28c4ca7f5850156fc726f5bf6a09821ef53b64e85b0a8c5f106555aec3
c8baedcc8773edc600486c7e6994c28c75be384500ac4988b3c82bf31c6531626ba29d28c4ca7f5850156fc726f5bf6a09821ef53b64e85b0a8c5f106555aec3
36e77ffbd2e958defaeda389d013de4275be384500ac4988b3c82bf31c6531626ba29d28c4ca7f5850156fc726f5bf6a09821ef53b64e85b0a8c5f106555aec3
4c3141c46a36e1ab762e6c2b4819dd7b75be384500ac4988b3c82bf31c6531626ba29d28c4ca7f5850156fc726f5bf6a09821ef53b64e85b0a8c5f106555aec3
8f1407e2c16ee8e82403ee542565bd4f75be384500ac4988b3c82bf31c6531626ba29d28c4ca7f5850156fc726f5bf6a09821ef53b64e85b0a8c5f106555aec3
***EEXP F1 0 VALUE={LIMIT(((V(G,S)-VTHval)/VCHARval),-80,80)} 
bcc2b5d8d2a44ed3e36ada7603e37bde979added4bba322b7236a99fbbbba11e632a2f36d939f491632a2f36d939f491b6792412e6ca3c605c272fedb5861b65
6344dda27888449d3f730f3e2357fdcdd88055922e5b0740caa5e0711288816a3e3bed9e00fb4633714f855d3587b318000fc12d735d5beb69ba81bc9f61e2f4
ceaf4f6c775c0b0150a36120f822a26cdfa4d6bea7d0324875be384500ac4988b3c82bf31c6531626ba29d28c4ca7f5850156fc726f5bf6aba428313f0e9e0c9
$CDNENCFINISH
.ENDS NSW_PS
*$
.SUBCKT PSW_PS D G S PARAMS: RONval=10k VTHval=0.7 VCHARval=0.01 CGval=0.01pF CDval=0.01pF 
$CDNENCSTART
eee8c5c7a2bc4b01f045f303678664e7916da0bae22e8cb0bba041dd67c69ce448ea70148a9ac1670c8926c1ac5057c8ccfcd77bf87ca9dc561eb19b3bfbaacc
3f510a0fa0d9a58d00486c7e6994c28c75be384500ac4988b3c82bf31c6531626ba29d28c4ca7f5850156fc726f5bf6a09821ef53b64e85b0a8c5f106555aec3
4fee993ae8eff14300486c7e6994c28c75be384500ac4988b3c82bf31c6531626ba29d28c4ca7f5850156fc726f5bf6a09821ef53b64e85b0a8c5f106555aec3
c8baedcc8773edc600486c7e6994c28c75be384500ac4988b3c82bf31c6531626ba29d28c4ca7f5850156fc726f5bf6a09821ef53b64e85b0a8c5f106555aec3
36e77ffbd2e958defaeda389d013de4275be384500ac4988b3c82bf31c6531626ba29d28c4ca7f5850156fc726f5bf6a09821ef53b64e85b0a8c5f106555aec3
4c3141c46a36e1ab762e6c2b4819dd7b75be384500ac4988b3c82bf31c6531626ba29d28c4ca7f5850156fc726f5bf6a09821ef53b64e85b0a8c5f106555aec3
bcc2b5d8d2a44ed3e36ada7603e37bde979added4bba322b584a1251b11bb09b8577b07d1241b40e26d29dc8994456ec4f4ed70fdbc267195c272fedb5861b65
5a8ca3732b7d40643f730f3e2357fdcd72cc4e0395929afecaa5e0711288816a3e3bed9e00fb4633714f855d3587b318000fc12d735d5beb69ba81bc9f61e2f4
ceaf4f6c775c0b0150a36120f822a26cdfa4d6bea7d0324875be384500ac4988b3c82bf31c6531626ba29d28c4ca7f5850156fc726f5bf6aba428313f0e9e0c9
$CDNENCFINISH
.ENDS PSW_PS
*$
.SUBCKT FALLING_DELAY IN OUT PARAMS: DELAY=100n VDD=1 VSS=0 VTHRESH=0.5
$CDNENCSTART
eee8c5c7a2bc4b01f045f303678664e7916da0bae22e8cb0bba041dd67c69ce448ea70148a9ac1670c8926c1ac5057c8ccfcd77bf87ca9dc561eb19b3bfbaacc
f0141b5f35912e429c68ca010600ec3fb6dc23bde97f6549d2bbd7e847d638e1e776e9b255bda08c858b231094abeea61f9a9c561ad56bf15f9b54423db04451
31bbfa71d5efb6fee2113c3ddb56f395539078c414ad4af48b97422dde5485cdfde7521cb4f9d2159d5dfc24c54d1622bfbea2f0690177d3e611992b54f8094c
fb59753c35cf55724fbdcf88067bccb298dc8712b089b68fb665067975fe60a88e7599a877645b6a0ff12bdfbc441b3f3647f88c94e6d7af4b283ee775a30b6a
93d3808648446fd7663733dbd667a43f50d74a34264a45bd28aa8e48300ea63b62ce7578eb4da06c8c32f21360c6f5052d7d046703215a1b3a6f0166677340f8
e0bee0f3fadd6724f73e0c5051b95e15771396838a205bb4294b7ea543ff9d6d56ff4338f4f2cc3a7562c06352794d3c105ada81f6f47b564d270d270298c353
d8f5a2ccd87b60ee663733dbd667a43f5eb470d6b3ba6a512c4b5f36edab5d85072e732378f73a0aa314a1180c78415bda510304889e27536e747ad5ef813016
d7072740a938f0e756d807437f71fb35d45bb29f1f2820a87cf0613942645d04521a61ffa9cbdbf0c5d045671e5decaf2029be389027b23d85cb4a5a975a3884
$CDNENCFINISH
.ENDS FALLING_DELAY
*$
.SUBCKT BUF_BASIC_GEN A  Y PARAMS: VDD=1 VSS=0 VTHRESH=0.5 
$CDNENCSTART
eee8c5c7a2bc4b01f045f303678664e7916da0bae22e8cb0bba041dd67c69ce448ea70148a9ac1670c8926c1ac5057c8ccfcd77bf87ca9dc561eb19b3bfbaacc
f305b7cfa07651615a9037c8c42a602b94aebb18efc1b73c4a0534bc16c6b751d67091752c09698a1541fe9d381cc6759fdfd00a6c11e28cc494f6733d088f3c
7e21bb79cbca9f8ce0c67063107b52eb294b7ea543ff9d6d56ff4338f4f2cc3a7562c06352794d3c105ada81f6f47b569b881a8125fff86cf732f347ae55e70b
bd9831b9881f0b92629491fb9c5ac4262d7d046703215a1bad326c6e3c95f18b5a24e80e99882ab94cd248682f81dcc6d50b83f047579d54aa3957c2a9cb4a92
02f2959404528fbdc14a2a6b7306d5bb98dc8712b089b68fb665067975fe60a88e7599a877645b6a0ff12bdfbc441b3f3647f88c94e6d7af4b283ee775a30b6a
$CDNENCFINISH
.ENDS BUF_BASIC_GEN
*$

