Version 4
SHEET 1 2368 796
WIRE 960 -432 688 -432
WIRE 1296 -432 1024 -432
WIRE 688 -304 688 -432
WIRE 752 -304 688 -304
WIRE 976 -304 880 -304
WIRE 1040 -304 976 -304
WIRE 1056 -304 1040 -304
WIRE 1184 -304 1168 -304
WIRE 1296 -304 1296 -432
WIRE 1296 -304 1184 -304
WIRE 688 -128 688 -304
WIRE 752 -128 688 -128
WIRE 976 -128 880 -128
WIRE 992 -128 976 -128
WIRE 1056 -128 992 -128
WIRE 1184 -128 1168 -128
WIRE 1296 -128 1296 -304
WIRE 1296 -128 1184 -128
WIRE 1296 -112 1296 -128
WIRE 1520 -32 1424 -32
WIRE 1584 -32 1520 -32
WIRE 1648 -32 1584 -32
WIRE -208 -16 -432 -16
WIRE 1424 32 1424 -32
WIRE 1520 32 1520 -32
WIRE -432 80 -432 -16
WIRE -96 112 -208 112
WIRE 0 112 -96 112
WIRE 32 112 0 112
WIRE 208 112 112 112
WIRE 304 112 272 112
WIRE 384 112 304 112
WIRE 544 112 496 112
WIRE 560 112 544 112
WIRE 992 112 992 -128
WIRE 992 112 640 112
WIRE 1040 112 1040 -304
WIRE 1424 112 1424 96
WIRE 1424 112 1040 112
WIRE -96 128 -96 112
WIRE -208 144 -208 112
WIRE 384 160 384 112
WIRE 496 160 496 112
WIRE 1584 176 1584 -32
WIRE 1648 176 1648 -32
WIRE -432 272 -432 160
WIRE -208 272 -432 272
WIRE -96 272 -208 272
WIRE 384 272 384 240
WIRE 384 272 -96 272
WIRE 448 272 384 272
WIRE 496 272 496 240
WIRE 1520 272 1520 96
WIRE 1520 272 496 272
WIRE 448 304 448 272
WIRE 1424 320 1424 112
WIRE 1520 320 1520 272
WIRE 1424 448 1424 384
WIRE 1520 448 1520 384
WIRE 1520 448 1424 448
WIRE 1584 448 1584 240
WIRE 1584 448 1520 448
WIRE 1648 448 1648 256
WIRE 1648 448 1584 448
FLAG 448 304 0
FLAG 0 112 Vin
FLAG 304 112 VL1
FLAG 544 112 VL2
FLAG -288 80 Q1
FLAG -288 240 Q2
FLAG -256 480 0
FLAG -400 400 Q1
FLAG -256 400 Q2
FLAG -96 112 5
FLAG -400 480 5
FLAG 848 -48 a1
FLAG 1152 -224 c1
FLAG 1152 -48 b1
FLAG 848 -224 d1
FLAG 976 -128 1
FLAG 1184 -128 2
FLAG 976 -304 3
FLAG 544 416 a1
FLAG 960 416 b1
FLAG 544 496 1
FLAG 960 496 2
FLAG 544 576 c1
FLAG 976 592 d1
FLAG 544 656 2
FLAG 976 672 3
FLAG 1296 -112 0
SYMBOL cap 272 96 R90
WINDOW 0 0 32 VBottom 2
WINDOW 3 32 32 VTop 2
SYMATTR InstName C1
SYMATTR Value 91.22p
SYMBOL ind2 368 256 M180
WINDOW 0 36 80 Left 2
WINDOW 3 36 40 Left 2
SYMATTR InstName L1
SYMATTR Value 6.023µ
SYMATTR Type ind
SYMBOL ind2 480 256 M180
WINDOW 0 36 80 Left 2
WINDOW 3 36 40 Left 2
SYMATTR InstName L2
SYMATTR Value 1.435µ
SYMATTR Type ind
SYMBOL res 128 96 R90
WINDOW 0 0 56 VBottom 2
WINDOW 3 32 56 VTop 2
SYMATTR InstName R1
SYMATTR Value 1.625
SYMBOL res 656 96 R90
WINDOW 0 0 56 VBottom 2
WINDOW 3 32 56 VTop 2
SYMATTR InstName R2
SYMATTR Value 0.812
SYMBOL res 1632 160 R0
SYMATTR InstName R0
SYMATTR Value 8
SYMBOL voltage -400 384 R0
WINDOW 123 0 0 Left 0
WINDOW 39 0 0 Left 0
WINDOW 3 -8 169 Left 2
SYMATTR Value PULSE(0 5 0 0.01p 0.01p 0.06u 0.14728u)
SYMATTR InstName V2
SYMBOL EPCGaN -288 80 R0
WINDOW 3 -78 -29 Left 2
SYMATTR Value EPC2035
SYMATTR InstName U1
SYMBOL EPCGaN -288 240 R0
WINDOW 3 -78 -29 Left 2
SYMATTR Value EPC2035
SYMATTR InstName U2
SYMBOL voltage -432 64 R0
WINDOW 123 0 0 Left 0
WINDOW 39 0 0 Left 0
SYMATTR InstName V1
SYMATTR Value 7.4
SYMBOL voltage -256 384 R0
WINDOW 123 0 0 Left 0
WINDOW 39 0 0 Left 0
WINDOW 3 46 101 Left 2
SYMATTR Value PULSE(0 5 0.07364u 0.01p 0.01p 0.06u 0.14728u)
SYMATTR InstName V3
SYMBOL cap -112 208 R0
SYMATTR InstName C3
SYMATTR Value 1µ
SYMBOL ind -112 112 R0
SYMATTR InstName L3
SYMATTR Value 0.5µ
SYMBOL cap 1024 -448 R90
WINDOW 0 0 32 VBottom 2
WINDOW 3 32 32 VTop 2
SYMATTR InstName C4
SYMATTR Value 50n
SYMBOL EPCGaN 848 -48 R270
WINDOW 3 33 9 VRight 2
SYMATTR Value EPC2035
SYMATTR InstName U3
SYMBOL EPCGaN 1152 -48 R270
WINDOW 3 37 13 VRight 2
SYMATTR Value EPC2035
SYMATTR InstName U4
SYMBOL EPCGaN 1152 -224 R270
WINDOW 3 31 4 VRight 2
SYMATTR Value EPC2035
SYMATTR InstName U5
SYMBOL EPCGaN 848 -224 R270
WINDOW 3 43 17 VRight 2
SYMATTR Value EPC2035
SYMATTR InstName U6
SYMBOL voltage 544 400 R0
WINDOW 123 0 0 Left 0
WINDOW 39 24 124 Left 2
SYMATTR InstName V4
SYMATTR Value PULSE(0 5 0 1p 1p 0.065u 0.14728u)
SYMBOL voltage 960 400 R0
WINDOW 123 0 0 Left 0
WINDOW 39 24 124 Left 2
SYMATTR InstName V5
SYMATTR Value PULSE(0 5 0.07364u 1p 1p 0.065u 0.14728u)
SYMBOL voltage 544 560 R0
WINDOW 123 0 0 Left 0
WINDOW 39 24 124 Left 2
SYMATTR InstName V6
SYMATTR Value PULSE(0 5 0 1p 1p 0.065u 0.14728u)
SYMBOL voltage 976 576 R0
WINDOW 123 0 0 Left 0
WINDOW 39 24 124 Left 2
SYMATTR InstName V7
SYMATTR Value PULSE(0 5 0.07364u 1p 1p 0.065u 0.14728u)
SYMBOL schottky 1536 384 R180
WINDOW 0 24 64 Left 2
WINDOW 3 24 0 Left 2
SYMATTR InstName D1
SYMATTR Value 1N5817
SYMATTR Description Diode
SYMATTR Type diode
SYMBOL schottky 1536 96 R180
WINDOW 0 24 64 Left 2
WINDOW 3 24 0 Left 2
SYMATTR InstName D2
SYMATTR Value 1N5817
SYMATTR Description Diode
SYMATTR Type diode
SYMBOL schottky 1440 96 R180
WINDOW 0 24 64 Left 2
WINDOW 3 24 0 Left 2
SYMATTR InstName D3
SYMATTR Value 1N5817
SYMATTR Description Diode
SYMATTR Type diode
SYMBOL schottky 1440 384 R180
WINDOW 0 24 64 Left 2
WINDOW 3 24 0 Left 2
SYMATTR InstName D4
SYMATTR Value 1N5817
SYMATTR Description Diode
SYMATTR Type diode
SYMBOL cap 1568 176 R0
SYMATTR InstName C2
SYMATTR Value 40n
TEXT 352 88 Left 2 !k L1 L2 0.0643
TEXT -72 312 Left 2 !.tran 0 0.1m 0 1n
TEXT 24 -304 Left 2 !.ic V(n001)=21
