Version 4
SHEET 1 1328 796
WIRE 704 -400 384 -400
WIRE 992 -400 768 -400
WIRE 384 -272 384 -400
WIRE 464 -272 384 -272
WIRE 672 -272 592 -272
WIRE 768 -272 672 -272
WIRE 800 -272 768 -272
WIRE 928 -272 912 -272
WIRE 992 -272 992 -400
WIRE 992 -272 928 -272
WIRE -256 -96 -480 -96
WIRE -80 -96 -256 -96
WIRE 384 -96 384 -272
WIRE 496 -96 384 -96
WIRE 672 -96 624 -96
WIRE 704 -96 672 -96
WIRE 816 -96 704 -96
WIRE 944 -96 912 -96
WIRE 992 -96 992 -272
WIRE 992 -96 944 -96
WIRE -80 -64 -80 -96
WIRE 16 -64 -80 -64
WIRE -256 -48 -256 -96
WIRE -176 -48 -256 -48
WIRE -256 0 -256 -48
WIRE -176 0 -176 -48
WIRE -80 0 -80 -64
WIRE 16 0 16 -64
WIRE -480 96 -480 -96
WIRE -256 96 -256 80
WIRE -176 96 -176 64
WIRE -176 96 -256 96
WIRE -80 96 -80 80
WIRE 16 96 16 64
WIRE 16 96 -80 96
WIRE -256 112 -256 96
WIRE 32 112 -256 112
WIRE 208 112 112 112
WIRE 384 112 272 112
WIRE 560 112 496 112
WIRE 704 112 704 -96
WIRE 704 112 640 112
WIRE 768 112 768 -272
WIRE 1056 112 768 112
WIRE 384 160 384 112
WIRE 496 160 496 112
WIRE 1056 160 1056 112
WIRE -256 256 -256 112
WIRE -176 256 -256 256
WIRE -80 272 -80 96
WIRE 0 272 -80 272
WIRE 384 272 384 240
WIRE 384 272 0 272
WIRE 496 272 496 240
WIRE 1056 272 1056 240
WIRE 1056 272 496 272
WIRE -256 288 -256 256
WIRE -176 288 -176 256
WIRE -80 288 -80 272
WIRE 0 304 0 272
WIRE 384 304 384 272
WIRE 496 304 496 272
WIRE 0 368 0 352
WIRE -256 400 -256 368
WIRE -176 400 -176 352
WIRE -176 400 -256 400
WIRE -80 400 -80 368
WIRE 0 400 0 368
WIRE 0 400 -80 400
WIRE -480 432 -480 176
WIRE -256 432 -256 400
WIRE -256 432 -480 432
WIRE -80 432 -80 400
WIRE -80 432 -256 432
FLAG -480 560 a
FLAG -80 560 b
FLAG -304 64 a
FLAG -128 352 a
FLAG -304 352 b
FLAG -128 64 b
FLAG -304 16 0
FLAG -128 16 0
FLAG -128 304 0
FLAG -304 304 0
FLAG 592 -16 a1
FLAG 896 -192 c1
FLAG 912 -16 b1
FLAG 560 -192 d1
FLAG 384 304 0
FLAG 496 304 0
FLAG -480 640 0
FLAG -80 640 0
FLAG 528 480 a1
FLAG 944 480 b1
FLAG 672 -96 1
FLAG 944 -96 2
FLAG 672 -272 3
FLAG 528 560 1
FLAG 944 560 2
FLAG 528 640 c1
FLAG 960 656 d1
FLAG 528 720 2
FLAG 960 736 3
SYMBOL voltage -480 80 R0
WINDOW 123 0 0 Left 0
WINDOW 39 0 0 Left 0
SYMATTR InstName V1
SYMATTR Value 6
SYMBOL voltage -480 544 R0
WINDOW 123 0 0 Left 0
WINDOW 39 0 0 Left 0
SYMATTR InstName V2
SYMATTR Value PULSE(0 5 0 1p 1p 995n 2u)
SYMBOL voltage -80 544 R0
WINDOW 123 0 0 Left 0
WINDOW 39 0 0 Left 0
SYMATTR InstName V3
SYMATTR Value PULSE(0 5 1u 1p 1p 995n 2u)
SYMBOL sw -256 -16 R0
WINDOW 3 24 44 Left 2
SYMATTR InstName S1
SYMBOL sw -256 272 R0
SYMATTR InstName S2
SYMBOL sw -80 -16 R0
SYMATTR InstName S3
SYMBOL sw -80 272 R0
SYMATTR InstName S4
SYMBOL cap 272 96 R90
WINDOW 0 0 32 VBottom 2
WINDOW 3 32 32 VTop 2
SYMATTR InstName C1
SYMATTR Value 9.211n
SYMBOL ind2 368 256 M180
WINDOW 0 36 80 Left 2
WINDOW 3 36 40 Left 2
SYMATTR InstName L1
SYMATTR Value 11µ
SYMATTR Type ind
SYMBOL ind2 480 256 M180
WINDOW 0 36 80 Left 2
WINDOW 3 36 40 Left 2
SYMATTR InstName L2
SYMATTR Value 16µ
SYMATTR Type ind
SYMBOL cap 768 -416 R90
WINDOW 0 0 32 VBottom 2
WINDOW 3 32 32 VTop 2
SYMATTR InstName C2
SYMATTR Value 1µ
SYMBOL res 1040 144 R0
SYMATTR InstName R1
SYMATTR Value 5
SYMBOL res 128 96 R90
WINDOW 0 0 56 VBottom 2
WINDOW 3 32 56 VTop 2
SYMATTR InstName R2
SYMATTR Value 1.0994
SYMBOL diode -160 64 R180
WINDOW 0 24 64 Left 2
WINDOW 3 24 0 Left 2
SYMATTR InstName D1
SYMBOL diode -160 352 R180
WINDOW 0 24 64 Left 2
WINDOW 3 24 0 Left 2
SYMATTR InstName D2
SYMBOL diode 16 368 R180
WINDOW 0 24 64 Left 2
WINDOW 3 24 0 Left 2
SYMATTR InstName D3
SYMBOL diode 32 64 R180
WINDOW 0 24 64 Left 2
WINDOW 3 24 0 Left 2
SYMATTR InstName D4
SYMBOL voltage 528 464 R0
WINDOW 123 0 0 Left 0
WINDOW 39 24 124 Left 2
SYMATTR SpiceLine Rser=5
SYMATTR InstName V4
SYMATTR Value PULSE(0 5 0 1p 1p 995n 2u)
SYMBOL voltage 944 464 R0
WINDOW 123 0 0 Left 0
WINDOW 39 24 124 Left 2
SYMATTR SpiceLine Rser=5
SYMATTR InstName V5
SYMATTR Value PULSE(0 5 1u 1p 1p 995n 2u)
SYMBOL voltage 528 624 R0
WINDOW 123 0 0 Left 0
WINDOW 39 24 124 Left 2
SYMATTR SpiceLine Rser=5
SYMATTR InstName V6
SYMATTR Value PULSE(0 5 0 1p 1p 995n 2u)
SYMBOL voltage 960 640 R0
WINDOW 123 0 0 Left 0
WINDOW 39 24 124 Left 2
SYMATTR SpiceLine Rser=5
SYMATTR InstName V7
SYMATTR Value PULSE(0 5 1u 1p 1p 995n 2u)
SYMBOL EPCGaN 592 -16 R270
WINDOW 3 -78 -29 Left 2
SYMATTR Value EPC8004
SYMATTR InstName U1
SYMBOL EPCGaN 912 -16 R270
WINDOW 3 -78 -29 Left 2
SYMATTR Value EPC8004
SYMATTR InstName U2
SYMBOL EPCGaN 896 -192 R270
WINDOW 3 -78 -29 Left 2
SYMATTR Value EPC8004
SYMATTR InstName U3
SYMBOL EPCGaN 560 -192 R270
WINDOW 3 -78 -29 Left 2
SYMATTR Value EPC8004
SYMATTR InstName U4
SYMBOL res 656 96 R90
WINDOW 0 0 56 VBottom 2
WINDOW 3 32 56 VTop 2
SYMATTR InstName R3
SYMATTR Value 1.6801
TEXT 376 64 Left 2 !k L1 L2 0.05
TEXT 8 488 Left 2 !.tran 0 1m 0 100n
TEXT -232 464 Left 2 !.model SW SW(Ron=0.01 Roff=10Meg Vt=.5 Vh=-.4)
